/*--------------------------------*- C++ -*----------------------------------*\
| =========                 |                                                 |
| \\      /  F ield         | OpenFOAM: The Open Source CFD Toolbox           |
|  \\    /   O peration     | Version:  4.x                                   |
|   \\  /    A nd           | Web:      www.OpenFOAM.org                      |
|    \\/     M anipulation  |                                                 |
\*---------------------------------------------------------------------------*/
FoamFile
{
    version     2.0;
    format      ascii;
    class       dictionary;
    object      snappyHexMeshDict;
}
// * * * * * * * * * * * * * * * * * * * * * * * * * * * * * * * * * * * * * //
 castellatedMesh true;
 snap false;
 addLayers false;
// https://sites.google.com/site/snappywiki/snappyhexmesh/snappyhexmeshdict/user-defined-regions
geometry
{
refinementCylinder1            
{
 type searchableCylinder;
 point1 (turbine0x turbine0y 0.0);
 point2 (turbine0x turbine0y 126.6);
 radius 3000.0;
}
 refinementSphere1 
{
 type searchableSphere;
 centre (turbine0x turbine0y 63.3);
 radius 63.3;
}
refinementCylinder2
{
 type searchableCylinder;
 point1 (turbine1x turbine1y 0.0);
 point2 (turbine1x turbine1y 126.6);
 radius 3000.0;
}
 refinementSphere2
{
 type searchableSphere;
 centre (turbine1x turbine1y 63.3);
 radius 63.3;
}
refinementCylinder3
{
 type searchableCylinder;
 point1 (turbine2x turbine2y 0.0);
 point2 (turbine2x turbine2y 126.6);
 radius 3000.0;
}
 refinementSphere3
{
 type searchableSphere;
 centre (turbine2x turbine2y 63.3);
 radius 63.3;
}

};
castellatedMeshControls
{
 maxLocalCells 1000000;
 maxGlobalCells 2000000;
 minRefinementCells 10;
 nCellsBetweenLevels 1;
 resolveFeatureAngle 30;
 features (); 
 refinementSurfaces { };
 refinementRegions
{
refinementCylinder1 
 {
 mode inside;
 levels ((1.0 1)); // one level of general refinement
 levelIncrement (0 1 (2 2 0)); // apply two level of refinement to any level 0 cells in the x and y directions only
 }
refinementSphere1
 {
 mode inside;
 levels ((1.0 0));
 levelIncrement (0 3 (4 4 0)); // apply extra levels of directional refinement inside fine sphere.
 }
refinementCylinder2
 {
 mode inside;
 levels ((1.0 1)); // one level of general refinement                          
 levelIncrement (0 1 (2 2 0)); // apply two level of refinement to any level 0 cells in the x and y directions only                                          
 }
refinementSphere2
 {
 mode inside;
 levels ((1.0 0));
 levelIncrement (0 3 (4 4 0)); // apply extra levels of directional refinement inside fine sphere.                                                            
 }
refinementCylinder3
 {
 mode inside;
 levels ((1.0 1)); // one level of general refinement                          
 levelIncrement (0 1 (2 2 0)); // apply two level of refinement to any level 0 cells in the x and y directions only                                          
 }
refinementSphere3
 {
 mode inside;
 levels ((1.0 0));
 levelIncrement (0 3 (4 4 0)); // apply extra levels of directional refinement inside fine sphere.                                                            
 }

}
 locationInMesh (0.0 0.0 63.3);
 allowFreeStandingZoneFaces true;
}
meshQualityControls
{
maxNonOrtho 65;
maxBoundarySkewness 20;
maxInternalSkewness 4;
maxConcave 80;
minFlatness 0.5;
minTetQuality 1e-30;
minVol 1e-13;
minArea -1;
minTwist 0.05;
minDeterminant 0.001;
minFaceWeight 0.05;
minVolRatio 0.01;
minTriangleTwist -1;
nSmoothScale 4;
errorReduction 0.75;
relaxed
{
 maxNonOrtho 75;
}
 nSmoothScale 4;
 errorReduction 0.75;
}
snapControls
{
 nSmoothPatch 3;
 tolerance 2.0;
 nSolveIter 30;
 nRelaxIter 5;
}
addLayersControls
{
}
mergeTolerance 1e-6;
